ir_sender
*SPICE Netlist generated by Advanced Sim server on 20.12.2023 08:46:25
.options MixedSimGenerated

*Schematic Netlist:
DDi NetDi_A 0 LED_IR
RRv NetDi_A +5 95

.SAVE allV
.SAVE allI
.SAVE allP

.PLOT {V(+5)} =PLOT(1) =AXIS(1)

*Selected Circuit Analyses:
.OP

*Models and Subcircuits:
*Typ INFRARED GaAs LED: Vf=1.2V Vr=5V If=40mA trr=3uS
*LED Pinout: 1=A, 2=K
.MODEL LED_IR D (IS=93.5P RS=84M N=2.63 BV=5 IBV=10U
+ CJO=2.97P VJ=.75 M=.333 TT=4.32U)

.END